@<TRIPOS>MOLECULE
*****
 43 42 0 0 0
SMALL
GASTEIGER

@<TRIPOS>ATOM
      1 C           1.0550    0.0572   -0.0200 C.3     1  UNL1       -0.0416
      2 C           2.5690    0.0184   -0.0177 C.3     1  UNL1        0.0449
      3 O           3.0543    1.3586   -0.0031 O.3     1  UNL1       -0.3778
      4 C           4.4800    1.3923    0.0013 C.3     1  UNL1        0.0710
      5 C           4.9527    2.8390    0.0186 C.3     1  UNL1        0.0711
      6 O           6.3791    2.8590    0.0226 O.3     1  UNL1       -0.3752
      7 C           6.8767    4.1941    0.0394 C.3     1  UNL1        0.0711
      8 C           8.3977    4.1576    0.0416 C.3     1  UNL1        0.0711
      9 O           8.8933    5.4937    0.0598 O.3     1  UNL1       -0.3752
     10 C          10.3181    5.5154    0.0624 C.3     1  UNL1        0.0711
     11 C          10.7912    6.9618    0.0793 C.3     1  UNL1        0.0711
     12 O          12.2161    6.9851    0.0815 O.3     1  UNL1       -0.3752
     13 C          12.7099    8.3225    0.0985 C.3     1  UNL1        0.0711
     14 C          14.2313    8.2855    0.0992 C.3     1  UNL1        0.0710
     15 O          14.7370    9.6193    0.1166 O.3     1  UNL1       -0.3778
     16 C          16.1627    9.6319    0.1180 C.3     1  UNL1        0.0449
     17 C          16.6308   11.0716    0.1363 C.3     1  UNL1       -0.0416
     18 H           0.6399   -0.9549   -0.0311 H       1  UNL1        0.0252
     19 H           0.6842    0.6009   -0.8950 H       1  UNL1        0.0252
     20 H           0.6811    0.5829    0.8644 H       1  UNL1        0.0252
     21 H           2.9306   -0.4950   -0.9153 H       1  UNL1        0.0557
     22 H           2.9272   -0.5134    0.8704 H       1  UNL1        0.0557
     23 H           4.8716    0.8855   -0.8889 H       1  UNL1        0.0583
     24 H           4.8666    0.8661    0.8824 H       1  UNL1        0.0583
     25 H           4.5657    3.3480    0.9096 H       1  UNL1        0.0583
     26 H           4.5706    3.3677   -0.8628 H       1  UNL1        0.0583
     27 H           6.5156    4.7206    0.9316 H       1  UNL1        0.0583
     28 H           6.5189    4.7421   -0.8405 H       1  UNL1        0.0583
     29 H           8.7591    3.6326   -0.8509 H       1  UNL1        0.0583
     30 H           8.7565    3.6093    0.9209 H       1  UNL1        0.0583
     31 H          10.7057    5.0071   -0.8287 H       1  UNL1        0.0583
     32 H          10.7026    4.9872    0.9432 H       1  UNL1        0.0583
     33 H          10.4031    7.4696    0.9705 H       1  UNL1        0.0583
     34 H          10.4057    7.4892   -0.8015 H       1  UNL1        0.0583
     35 H          12.3491    8.8472    0.9913 H       1  UNL1        0.0583
     36 H          12.3502    8.8695   -0.7812 H       1  UNL1        0.0583
     37 H          14.5902    7.7589   -0.7932 H       1  UNL1        0.0583
     38 H          14.5890    7.7360    0.9780 H       1  UNL1        0.0583
     39 H          16.5367    9.1297   -0.7815 H       1  UNL1        0.0557
     40 H          16.5359    9.1069    1.0035 H       1  UNL1        0.0557
     41 H          16.2513   11.6132   -0.7354 H       1  UNL1        0.0252
     42 H          17.7238   11.1255    0.1380 H       1  UNL1        0.0252
     43 H          16.2503   11.5893    1.0243 H       1  UNL1        0.0252
@<TRIPOS>BOND
     1     1     2    1
     2     2     3    1
     3     3     4    1
     4     4     5    1
     5     5     6    1
     6     6     7    1
     7     7     8    1
     8     8     9    1
     9     9    10    1
    10    10    11    1
    11    11    12    1
    12    12    13    1
    13    13    14    1
    14    14    15    1
    15    15    16    1
    16    16    17    1
    17     1    18    1
    18     1    19    1
    19     1    20    1
    20     2    21    1
    21     2    22    1
    22     4    23    1
    23     4    24    1
    24     5    25    1
    25     5    26    1
    26     7    27    1
    27     7    28    1
    28     8    29    1
    29     8    30    1
    30    10    31    1
    31    10    32    1
    32    11    33    1
    33    11    34    1
    34    13    35    1
    35    13    36    1
    36    14    37    1
    37    14    38    1
    38    16    39    1
    39    16    40    1
    40    17    41    1
    41    17    42    1
    42    17    43    1
