@<TRIPOS>MOLECULE
*****
 43 42 0 0 0
SMALL
GASTEIGER

@<TRIPOS>ATOM
      1 C           0.9340   -0.0895   -0.0227 C.3     1  UNL1       -0.0416
      2 C           2.4487   -0.1133   -0.0460 C.3     1  UNL1        0.0449
      3 O           2.9348    0.7546    0.9761 O.3     1  UNL1       -0.3778
      4 C           4.3590    0.7719    1.0011 C.3     1  UNL1        0.0710
      5 C           4.8321    1.7082    2.1021 C.3     1  UNL1        0.0711
      6 O           6.2581    1.7162    2.1185 O.3     1  UNL1       -0.3752
      7 C           6.7539    2.5790    3.1383 C.3     1  UNL1        0.0711
      8 C           8.2734    2.5542    3.1122 C.3     1  UNL1        0.0711
      9 O           8.7676    3.4162    4.1330 O.3     1  UNL1       -0.3752
     10 C          10.1918    3.4273    4.1498 C.3     1  UNL1        0.0711
     11 C          10.6640    4.3632    5.2519 C.3     1  UNL1        0.0711
     12 O          12.0887    4.3753    5.2708 O.3     1  UNL1       -0.3752
     13 C          12.5812    5.2404    6.2911 C.3     1  UNL1        0.0711
     14 C          14.1019    5.2137    6.2672 C.3     1  UNL1        0.0710
     15 O          14.6072    6.0773    7.2833 O.3     1  UNL1       -0.3778
     16 C          16.0316    6.0805    7.2933 C.3     1  UNL1        0.0449
     17 C          16.5042    7.0128    8.3893 C.3     1  UNL1       -0.0416
     18 H           0.5236   -0.7460   -0.7952 H       1  UNL1        0.0252
     19 H           0.5616    0.9269   -0.1871 H       1  UNL1        0.0252
     20 H           0.5584   -0.4129    0.9534 H       1  UNL1        0.0252
     21 H           2.8110    0.2274   -1.0226 H       1  UNL1        0.0557
     22 H           2.8075   -1.1328    0.1348 H       1  UNL1        0.0557
     23 H           4.7487    1.1101    0.0331 H       1  UNL1        0.0583
     24 H           4.7444   -0.2388    1.1813 H       1  UNL1        0.0583
     25 H           4.4464    1.3688    3.0716 H       1  UNL1        0.0583
     26 H           4.4504    2.7197    1.9241 H       1  UNL1        0.0583
     27 H           6.3932    2.2507    4.1205 H       1  UNL1        0.0583
     28 H           6.3967    3.6026    2.9750 H       1  UNL1        0.0583
     29 H           8.6357    2.8833    2.1308 H       1  UNL1        0.0583
     30 H           8.6331    1.5304    3.2752 H       1  UNL1        0.0583
     31 H          10.5787    3.7671    3.1812 H       1  UNL1        0.0583
     32 H          10.5761    2.4163    4.3282 H       1  UNL1        0.0583
     33 H          10.2756    4.0236    6.2193 H       1  UNL1        0.0583
     34 H          10.2793    5.3740    5.0719 H       1  UNL1        0.0583
     35 H          12.2168    4.9123    7.2720 H       1  UNL1        0.0583
     36 H          12.2222    6.2630    6.1239 H       1  UNL1        0.0583
     37 H          14.4626    5.5374    5.2835 H       1  UNL1        0.0583
     38 H          14.4568    4.1893    6.4323 H       1  UNL1        0.0583
     39 H          16.4070    6.4258    6.3235 H       1  UNL1        0.0557
     40 H          16.4019    5.0666    7.4819 H       1  UNL1        0.0557
     41 H          16.1284    8.0277    8.2219 H       1  UNL1        0.0252
     42 H          17.5958    7.0428    8.4294 H       1  UNL1        0.0252
     43 H          16.1231    6.6884    9.3634 H       1  UNL1        0.0252
@<TRIPOS>BOND
     1     1     2    1
     2     2     3    1
     3     3     4    1
     4     4     5    1
     5     5     6    1
     6     6     7    1
     7     7     8    1
     8     8     9    1
     9     9    10    1
    10    10    11    1
    11    11    12    1
    12    12    13    1
    13    13    14    1
    14    14    15    1
    15    15    16    1
    16    16    17    1
    17     1    18    1
    18     1    19    1
    19     1    20    1
    20     2    21    1
    21     2    22    1
    22     4    23    1
    23     4    24    1
    24     5    25    1
    25     5    26    1
    26     7    27    1
    27     7    28    1
    28     8    29    1
    29     8    30    1
    30    10    31    1
    31    10    32    1
    32    11    33    1
    33    11    34    1
    34    13    35    1
    35    13    36    1
    36    14    37    1
    37    14    38    1
    38    16    39    1
    39    16    40    1
    40    17    41    1
    41    17    42    1
    42    17    43    1
