@<TRIPOS>MOLECULE
*****
   12    11     1     0     0
SMALL
bcc


@<TRIPOS>ATOM
      1 C            1.0200     0.0580     0.0800 c3         1 UNL      -0.091100
      2 C1           2.5370     0.0750     0.0550 c3         1 UNL      -0.120400
      3 C2           3.0710     0.8480    -1.1430 c3         1 UNL       0.126400
      4 O            4.4920     0.8400    -1.1290 oh         1 UNL      -0.598800
      5 H            0.6590    -0.5020     0.9480 hc         1 UNL       0.036033
      6 H1           0.6190    -0.4160    -0.8220 hc         1 UNL       0.036033
      7 H2           0.6180     1.0750     0.1410 hc         1 UNL       0.036033
      8 H3           2.9220    -0.9510     0.0320 hc         1 UNL       0.046200
      9 H4           2.9190     0.5200     0.9820 hc         1 UNL       0.046200
     10 H5           2.7300     1.8880    -1.1310 h1         1 UNL       0.044200
     11 H6           2.7400     0.3900    -2.0800 h1         1 UNL       0.044200
     12 H7           4.7790     1.2710    -0.3060 ho         1 UNL       0.396000
@<TRIPOS>BOND
     1     1     2 1   
     2     2     3 1   
     3     3     4 1   
     4     1     5 1   
     5     1     6 1   
     6     1     7 1   
     7     2     8 1   
     8     2     9 1   
     9     3    10 1   
    10     3    11 1   
    11     4    12 1   
@<TRIPOS>SUBSTRUCTURE
     1 UNL         1 TEMP              0 ****  ****    0 ROOT
