@<TRIPOS>MOLECULE
*****
 12 11 0 0 0
SMALL
GASTEIGER

@<TRIPOS>ATOM
      1 C           1.0197    0.0583    0.0796 C.3     1  UNL1       -0.0632
      2 C           2.5373    0.0755    0.0550 C.3     1  UNL1       -0.0326
      3 C           3.0712    0.8480   -1.1428 C.3     1  UNL1        0.0440
      4 O           4.4919    0.8395   -1.1290 O.3     1  UNL1       -0.3950
      5 H           0.6593   -0.5020    0.9478 H       1  UNL1        0.0230
      6 H           0.6185   -0.4161   -0.8217 H       1  UNL1        0.0230
      7 H           0.6179    1.0748    0.1405 H       1  UNL1        0.0230
      8 H           2.9224   -0.9510    0.0319 H       1  UNL1        0.0285
      9 H           2.9190    0.5198    0.9821 H       1  UNL1        0.0285
     10 H           2.7297    1.8880   -1.1307 H       1  UNL1        0.0557
     11 H           2.7403    0.3897   -2.0801 H       1  UNL1        0.0557
     12 H           4.7792    1.2714   -0.3060 H       1  UNL1        0.2094
@<TRIPOS>BOND
     1     1     2    1
     2     2     3    1
     3     3     4    1
     4     1     5    1
     5     1     6    1
     6     1     7    1
     7     2     8    1
     8     2     9    1
     9     3    10    1
    10     3    11    1
    11     4    12    1
