@<TRIPOS>MOLECULE
*****
 43 42 0 0 0
SMALL
GASTEIGER

@<TRIPOS>ATOM
      1 C           0.9057   -0.0590   -0.0164 C.3     1  UNL1       -0.0416
      2 C           2.4203   -0.0873   -0.0325 C.3     1  UNL1        0.0449
      3 O           2.9037    1.0143    0.7291 O.3     1  UNL1       -0.3778
      4 C           4.3292    1.0376    0.7500 C.3     1  UNL1        0.0710
      5 C           4.8037    2.2266    1.5712 C.3     1  UNL1        0.0711
      6 O           6.2285    2.2394    1.5841 O.3     1  UNL1       -0.3752
      7 C           6.7247    3.3375    2.3434 C.3     1  UNL1        0.0711
      8 C           8.2444    3.3067    2.3253 C.3     1  UNL1        0.0711
      9 O           8.7375    4.4046    3.0868 O.3     1  UNL1       -0.3752
     10 C          10.1620    4.4196    3.0990 C.3     1  UNL1        0.0711
     11 C          10.6346    5.6067    3.9228 C.3     1  UNL1        0.0711
     12 O          12.0592    5.6236    3.9371 O.3     1  UNL1       -0.3752
     13 C          12.5512    6.7223    4.7008 C.3     1  UNL1        0.0711
     14 C          14.0712    6.6919    4.6864 C.3     1  UNL1        0.0710
     15 O          14.5753    7.7863    5.4480 O.3     1  UNL1       -0.3778
     16 C          16.0010    7.7911    5.4568 C.3     1  UNL1        0.0449
     17 C          16.4742    8.9715    6.2790 C.3     1  UNL1       -0.0416
     18 H           0.4970   -0.8925   -0.5935 H       1  UNL1        0.0252
     19 H           0.5329    0.8802   -0.4377 H       1  UNL1        0.0252
     20 H           0.5295   -0.1196    1.0099 H       1  UNL1        0.0252
     21 H           2.7827   -0.0094   -1.0640 H       1  UNL1        0.0557
     22 H           2.7798   -1.0250    0.4059 H       1  UNL1        0.0557
     23 H           4.7205    1.1130   -0.2712 H       1  UNL1        0.0583
     24 H           4.7143    0.1084    1.1872 H       1  UNL1        0.0583
     25 H           4.4185    2.1521    2.5952 H       1  UNL1        0.0583
     26 H           4.4229    3.1579    1.1352 H       1  UNL1        0.0583
     27 H           6.3636    3.2763    3.3771 H       1  UNL1        0.0583
     28 H           6.3667    4.2833    1.9188 H       1  UNL1        0.0583
     29 H           8.6067    3.3705    1.2921 H       1  UNL1        0.0583
     30 H           8.6037    2.3612    2.7490 H       1  UNL1        0.0583
     31 H          10.5476    4.4980    2.0756 H       1  UNL1        0.0583
     32 H          10.5457    3.4882    3.5321 H       1  UNL1        0.0583
     33 H          10.2473    5.5278    4.9454 H       1  UNL1        0.0583
     34 H          10.2498    6.5376    3.4892 H       1  UNL1        0.0583
     35 H          12.1858    6.6569    5.7331 H       1  UNL1        0.0583
     36 H          12.1912    7.6671    4.2759 H       1  UNL1        0.0583
     37 H          14.4327    6.7539    3.6525 H       1  UNL1        0.0583
     38 H          14.4268    5.7433    5.1065 H       1  UNL1        0.0583
     39 H          16.3749    7.8775    4.4312 H       1  UNL1        0.0557
     40 H          16.3690    6.8585    5.8973 H       1  UNL1        0.0557
     41 H          16.0990    9.9101    5.8585 H       1  UNL1        0.0252
     42 H          17.5668    9.0081    6.3085 H       1  UNL1        0.0252
     43 H          16.0936    8.9058    7.3034 H       1  UNL1        0.0252
@<TRIPOS>BOND
     1     1     2    1
     2     2     3    1
     3     3     4    1
     4     4     5    1
     5     5     6    1
     6     6     7    1
     7     7     8    1
     8     8     9    1
     9     9    10    1
    10    10    11    1
    11    11    12    1
    12    12    13    1
    13    13    14    1
    14    14    15    1
    15    15    16    1
    16    16    17    1
    17     1    18    1
    18     1    19    1
    19     1    20    1
    20     2    21    1
    21     2    22    1
    22     4    23    1
    23     4    24    1
    24     5    25    1
    25     5    26    1
    26     7    27    1
    27     7    28    1
    28     8    29    1
    29     8    30    1
    30    10    31    1
    31    10    32    1
    32    11    33    1
    33    11    34    1
    34    13    35    1
    35    13    36    1
    36    14    37    1
    37    14    38    1
    38    16    39    1
    39    16    40    1
    40    17    41    1
    41    17    42    1
    42    17    43    1
