@<TRIPOS>MOLECULE
*****
 43 42 0 0 0
SMALL
GASTEIGER

@<TRIPOS>ATOM
      1 C           1.0104    0.0801   -0.0616 C.3     1  UNL1       -0.0416
      2 C           2.5247    0.0993   -0.0246 C.3     1  UNL1        0.0449
      3 O           3.0110   -0.4400   -1.2511 O.3     1  UNL1       -0.3778
      4 C           4.4369   -0.4531   -1.2828 C.3     1  UNL1        0.0710
      5 C           4.9086   -1.0347   -2.6084 C.3     1  UNL1        0.0711
      6 O           6.3349   -1.0427   -2.6290 O.3     1  UNL1       -0.3752
      7 C           6.8320   -1.5785   -3.8526 C.3     1  UNL1        0.0711
      8 C           8.3543   -1.5631   -3.8211 C.3     1  UNL1        0.0711
      9 O           8.8506   -2.0975   -5.0458 O.3     1  UNL1       -0.3752
     10 C          10.2761   -2.1038   -5.0678 C.3     1  UNL1        0.0711
     11 C          10.7503   -2.6844   -6.3929 C.3     1  UNL1        0.0711
     12 O          12.1756   -2.6921   -6.4154 O.3     1  UNL1       -0.3752
     13 C          12.6719   -3.2289   -7.6405 C.3     1  UNL1        0.0711
     14 C          14.1943   -3.2130   -7.6066 C.3     1  UNL1        0.0710
     15 O          14.7018   -3.7488   -8.8270 O.3     1  UNL1       -0.3778
     16 C          16.1269   -3.7529   -8.8381 C.3     1  UNL1        0.0449
     17 C          16.5932   -4.3333  -10.1579 C.3     1  UNL1       -0.0416
     18 H           0.5928    0.4870    0.8640 H       1  UNL1        0.0252
     19 H           0.6411   -0.9416   -0.1973 H       1  UNL1        0.0252
     20 H           0.6380    0.6688   -0.9065 H       1  UNL1        0.0252
     21 H           2.8849   -0.5061    0.8143 H       1  UNL1        0.0557
     22 H           2.8821    1.1282    0.0944 H       1  UNL1        0.0557
     23 H           4.8266   -1.0567   -0.4539 H       1  UNL1        0.0583
     24 H           4.8259    0.5656   -1.1656 H       1  UNL1        0.0583
     25 H           4.5227   -0.4312   -3.4390 H       1  UNL1        0.0583
     26 H           4.5234   -2.0544   -2.7272 H       1  UNL1        0.0583
     27 H           6.4717   -0.9836   -4.7003 H       1  UNL1        0.0583
     28 H           6.4738   -2.6063   -3.9884 H       1  UNL1        0.0583
     29 H           8.7147   -2.1592   -2.9750 H       1  UNL1        0.0583
     30 H           8.7132   -0.5359   -3.6842 H       1  UNL1        0.0583
     31 H          10.6642   -2.7059   -4.2374 H       1  UNL1        0.0583
     32 H          10.6603   -1.0834   -4.9495 H       1  UNL1        0.0583
     33 H          10.3624   -2.0817   -7.2229 H       1  UNL1        0.0583
     34 H          10.3650   -3.7044   -6.5108 H       1  UNL1        0.0583
     35 H          12.3109   -2.6327   -8.4871 H       1  UNL1        0.0583
     36 H          12.3120   -4.2560   -7.7755 H       1  UNL1        0.0583
     37 H          14.5518   -3.8069   -6.7568 H       1  UNL1        0.0583
     38 H          14.5507   -2.1851   -7.4693 H       1  UNL1        0.0583
     39 H          16.5015   -4.3639   -8.0096 H       1  UNL1        0.0557
     40 H          16.5008   -2.7290   -8.7281 H       1  UNL1        0.0557
     41 H          16.2115   -5.3512  -10.2873 H       1  UNL1        0.0252
     42 H          17.6852   -4.3556  -10.2091 H       1  UNL1        0.0252
     43 H          16.2113   -3.7406  -10.9959 H       1  UNL1        0.0252
@<TRIPOS>BOND
     1     1     2    1
     2     2     3    1
     3     3     4    1
     4     4     5    1
     5     5     6    1
     6     6     7    1
     7     7     8    1
     8     8     9    1
     9     9    10    1
    10    10    11    1
    11    11    12    1
    12    12    13    1
    13    13    14    1
    14    14    15    1
    15    15    16    1
    16    16    17    1
    17     1    18    1
    18     1    19    1
    19     1    20    1
    20     2    21    1
    21     2    22    1
    22     4    23    1
    23     4    24    1
    24     5    25    1
    25     5    26    1
    26     7    27    1
    27     7    28    1
    28     8    29    1
    29     8    30    1
    30    10    31    1
    31    10    32    1
    32    11    33    1
    33    11    34    1
    34    13    35    1
    35    13    36    1
    36    14    37    1
    37    14    38    1
    38    16    39    1
    39    16    40    1
    40    17    41    1
    41    17    42    1
    42    17    43    1
